LAMMPS (3 Aug 2022)
# Magnetic interaction simulation of 2 MNPs using MSPIN package
units				real
dimension			3
boundary 			p p p

atom_style		    full
newton              on

bond_style          harmonic
angle_style         harmonic
dihedral_style      harmonic
pair_style          lj/cut/coul/long 8.0
pair_modify         mix arithmetic
kspace_style        pppm 1e-4

read_data		    data.mspin
Reading data file ...
  orthogonal box = (0 0 0) to (95.6621 58.5717 59.9276)
  reading atoms ...
  2420 atoms
  scanning bonds ...
  scanning angles ...
  scanning dihedrals ...
  reading bonds ...
  2822 bonds
  reading angles ...
  6574 angles
  reading dihedrals ...
  15085 dihedrals
Finding 1-2 1-3 1-4 neighbors ...
     7 = max # of 1-2 neighbors
    19 = max # of 1-3 neighbors
    98 = max # of 1-4 neighbors
    52 = max # of special neighbors
special_bonds       amber
Finding 1-2 1-3 1-4 neighbors ...
     7 = max # of 1-2 neighbors
    19 = max # of 1-3 neighbors
    98 = max # of 1-4 neighbors
    52 = max # of special neighbors

reset_timestep		0
timestep 			2.0

velocity            all create 300.0 908070
run         0
PPPM initialization ...
  G vector (1/distance) = 0.25251883
  grid = 30 20 20
  stencil order = 5
  estimated absolute RMS force accuracy = 0.033221382
  estimated relative force accuracy = 0.0001000452
  3d grid and FFT values/proc = 21875 12000
Generated 45 of 45 mixed pair_coeff terms from arithmetic mixing rule
Step          Temp          E_pair         E_mol          TotEng         Press
0   300           -13091.057      28105.485      17177.602      302.82615
Loop time of 7.81e-07 on 1 procs for 0 steps with 2420 atoms

velocity            all scale 300.0

group 	            core    molecule 1 21
406 atoms in group core
group 	            ligs    subtract all core
2014 atoms in group ligs

fix                 qm      all property/atom d_qm
set                 atom    79      d_qm     0.0353   # NP 1
Setting atom values ...
  1 settings made for d_qm
set                 atom    140     d_qm    -0.0353   # NP 1
Setting atom values ...
  1 settings made for d_qm
set                 atom    1347    d_qm     0.0353   # NP 2
Setting atom values ...
  1 settings made for d_qm
set                 atom    1283    d_qm    -0.0353   # NP 2
Setting atom values ...
  1 settings made for d_qm

delete_bonds        core 		multi remove special
System init for delete_bonds ...
PPPM initialization ...
  G vector (1/distance) = 0.25251883
  grid = 30 20 20
  stencil order = 5
  estimated absolute RMS force accuracy = 0.033221382
  estimated relative force accuracy = 0.0001000452
  3d grid and FFT values/proc = 21875 12000
Generated 45 of 45 mixed pair_coeff terms from arithmetic mixing rule
Deleting bonds ...
  2052 total bonds, 2052 turned on, 0 turned off
  4176 total angles, 4176 turned on, 0 turned off
  7693 total dihedrals, 7693 turned on, 0 turned off
  0 total impropers, 0 turned on, 0 turned off
Finding 1-2 1-3 1-4 neighbors ...
     4 = max # of 1-2 neighbors
     6 = max # of 1-3 neighbors
    12 = max # of 1-4 neighbors
    52 = max # of special neighbors
fix				    fligs		ligs nvt temp 300 300 200
fix			        fcore       core rigid/nvt/mspin molecule temp 300.0 300.0 200                                         bfield 0.0 0.0 1.0 uniform alpha 1.0 beta 50.0 dpcut 160.0
  2 rigid bodies with 406 atoms

MSPIN initialization ...
  implementing magnetic dipolar interactions with cutoff 160.000000 A
  dipolar interaction scaling factor alpha 1.000000
  uniform external B field 0.000000 0.000000 1.000000 T applied
  dipole moment scaling factor beta 50.000000

fix_modify 	        fcore	    energy yes
compute			    engy		core mspin/energy fcore
compute			    dist		core mspin/distance fcore 1 2

thermo 				10
thermo_style 	    custom 		step ecoul evdwl pe ke etotal temp c_engy[1] c_engy[2] c_dist[1]
#dump	            dvmd        all custom 100 mspin.lammpstrj id mol type x y z ix iy iz

run			1000

CITE-CITE-CITE-CITE-CITE-CITE-CITE-CITE-CITE-CITE-CITE-CITE-CITE

Your simulation uses code contributions which should be cited:

- mspin package: doi:10.1021/acs.jctc.1c01253

@Article{Mahmood22,
 author = {A.U. Mahmood and Y.G. Yingling},
 title = {All-Atom Simulation Method for Zeeman Alignment and Dipolar Assembly of Magnetic Nanoparticles},
 journal = {Journal of Chemical Theory and Computation},
 year =    2022,
 volume =  18(5),
 pages =   {3122-3135}
}

CITE-CITE-CITE-CITE-CITE-CITE-CITE-CITE-CITE-CITE-CITE-CITE-CITE

PPPM initialization ...
  G vector (1/distance) = 0.25251883
  grid = 30 20 20
  stencil order = 5
  estimated absolute RMS force accuracy = 0.033221382
  estimated relative force accuracy = 0.0001000452
  3d grid and FFT values/proc = 21875 12000
Generated 45 of 45 mixed pair_coeff terms from arithmetic mixing rule

MSPIN magnetic dipoles ...
Step         E_coul         E_vdwl         PotEng         KinEng         TotEng          Temp        c_engy[1]      c_engy[2]      c_dist[1]
0   1090.1016      65077.596      69905.632      1813.5199      71719.152      301.63527      0.10651833     3.3618116      39.020991
Averages over the last 51 of 101 rows, steps 500 to 1000:
E_coul E_vdwl PotEng KinEng TotEng Temp c_engy[1] c_engy[2] c_dist[1]
1094.68 65032.9 68502.5 1795.71 70298.2 298.672 0.103642 3.4665 39.0508
Loop time of 3.92948 on 1 procs for 1000 steps with 2420 atoms
