LAMMPS (3 Aug 2022)
## Magnetic Interaction Simulation
## Part of "MSPIN" package for magnetic interaction.
## Author: Akhlak Mahmood, Yingling Group, NC State University.

units				real
dimension			3
boundary 			p p p

atom_style		    qmag
newton off

bond_style          harmonic
angle_style         harmonic
dihedral_style      harmonic
pair_style          lj/cut/coul/long 8.0
pair_modify         mix arithmetic
kspace_style        pppm 1e-4

read_data		    data.mspin
Reading data file ...
  orthogonal box = (0 0 0) to (97.6763 58.5717 60.6247)
  reading atoms ...
  4116 atoms
  scanning bonds ...
  scanning angles ...
  scanning dihedrals ...
  reading bonds ...
  4550 bonds
  reading angles ...
  10086 angles
  reading dihedrals ...
  21406 dihedrals
Finding 1-2 1-3 1-4 neighbors ...
     7 = max # of 1-2 neighbors
    20 = max # of 1-3 neighbors
    98 = max # of 1-4 neighbors
    55 = max # of special neighbors
special_bonds       amber
Finding 1-2 1-3 1-4 neighbors ...
     7 = max # of 1-2 neighbors
    20 = max # of 1-3 neighbors
    98 = max # of 1-4 neighbors
    55 = max # of special neighbors

reset_timestep		0
timestep 			2.0

group 	    core    molecule 1 37
406 atoms in group core
group 	    ligs    subtract all core
3710 atoms in group ligs

delete_bonds        core 		multi remove special
System init for delete_bonds ...
PPPM initialization ...
  G vector (1/distance) = 0.2655163
  grid = 32 24 24
  stencil order = 5
  estimated absolute RMS force accuracy = 0.027043653
  estimated relative force accuracy = 8.1441157e-05
  3d grid and FFT values/proc = 31117 18432
Generated 55 of 55 mixed pair_coeff terms from arithmetic mixing rule
Deleting bonds ...
  3780 total bonds, 3780 turned on, 0 turned off
  7688 total angles, 7688 turned on, 0 turned off
  14014 total dihedrals, 14014 turned on, 0 turned off
  0 total impropers, 0 turned on, 0 turned off
Finding 1-2 1-3 1-4 neighbors ...
     4 = max # of 1-2 neighbors
     6 = max # of 1-3 neighbors
    12 = max # of 1-4 neighbors
    55 = max # of special neighbors

velocity            all create 300.0 908070
run         0
PPPM initialization ...
  G vector (1/distance) = 0.2655163
  grid = 32 24 24
  stencil order = 5
  estimated absolute RMS force accuracy = 0.027043653
  estimated relative force accuracy = 8.1441157e-05
  3d grid and FFT values/proc = 31117 18432
Generated 55 of 55 mixed pair_coeff terms from arithmetic mixing rule
Step          Temp          E_pair         E_mol          TotEng         Press
0   300            539512.87      19776.485      562969.17      433965.22
Loop time of 1.303e-06 on 1 procs for 0 steps with 4116 atoms

velocity            all scale 300.0

fix				    fligs		ligs nvt temp 300 300 100
fix			        fcore       core rigid/nvt/mspin molecule temp 300.0 300.0 100                                         bfield 0.0 0.0 1.0 uniform alpha 1.0 beta 50.0 dpcut 160.0
  2 rigid bodies with 406 atoms

MSPIN initialization ...
  implementing magnetic dipolar interactions with cutoff 160.000000 A
  dipolar interaction scaling factor alpha 1.000000
  uniform external B field 0.000000 0.000000 1.000000 applied
  dipole moment scaling factor beta 50.000000

fix_modify 	        fcore	    energy yes
compute			    engy		core mspin/energy fcore
compute			    dist		core mspin/distance fcore 1 2

thermo 				10
# dump	    dvmd    all         custom 100 mspin.lammpstrj id mol type x y z ix iy iz
thermo_style 	    custom 		step ecoul evdwl pe ke etotal temp c_engy[1] c_engy[2] c_dist[1]

run			1000

CITE-CITE-CITE-CITE-CITE-CITE-CITE-CITE-CITE-CITE-CITE-CITE-CITE

Your simulation uses code contributions which should be cited:

- mspin package: doi:10.1021/acs.jctc.1c01253

@Article{Mahmood22,
 author = {A.U. Mahmood and Y.G. Yingling},
 title = {All-Atom Simulation Method for Zeeman Alignment and Dipolar Assembly of Magnetic Nanoparticles},
 journal = {Journal of Chemical Theory and Computation},
 year =    2022,
 volume =  18(5),
 pages =   {3122-3135}
}

CITE-CITE-CITE-CITE-CITE-CITE-CITE-CITE-CITE-CITE-CITE-CITE-CITE

PPPM initialization ...
  G vector (1/distance) = 0.2655163
  grid = 32 24 24
  stencil order = 5
  estimated absolute RMS force accuracy = 0.027043653
  estimated relative force accuracy = 8.1441157e-05
  3d grid and FFT values/proc = 31117 18432
Generated 55 of 55 mixed pair_coeff terms from arithmetic mixing rule

MSPIN magnetic dipoles ...
  Dipole 1: qm = 0.035300 Ke/fs A	d = 11.002753 A	mu = 19.419860 Ke/fs A^2
  Effective dipole moment [1]:	beta * mu = 1555.724976 x 10^-21 A m^2
  Dipole 2: qm = 0.035300 Ke/fs A	d = 11.003240 A	mu = 19.420719 Ke/fs A^2
  Effective dipole moment [2]:	beta * mu = 1555.793806 x 10^-21 A m^2
Step         E_coul         E_vdwl         PotEng         KinEng         TotEng          Temp        c_engy[1]      c_engy[2]      c_dist[1]
0   6370.6121      544982.73      559627.05      3327.6097      562954.66      300.65825      0.2270644     -8.8385737      39.411562
Averages over the last 51 of 101 rows, steps 500 to 1000:
E_coul E_vdwl PotEng KinEng TotEng Temp c_engy[1] c_engy[2] c_dist[1]
6397.17 544486 556753 3325.17 560078 300.438 0.225609 -8.83358 39.4519
Loop time of 8.2526 on 1 procs for 1000 steps with 4116 atoms
