LAMMPS (27 Jun 2024)
# pouring spheres into box made of triangles

units		lj
atom_style	tri
atom_modify     map array
boundary        f f f
dimension	3
comm_modify     vel yes

read_data	data.tri
Reading data file ...
  orthogonal box = (-7 -7 0) to (7 7 9)
  reading atoms ...
  4 atoms
  4 triangles

pair_style	hybrid gran/hooke/history 4000.0 NULL 100.0 NULL 0.5 1                 tri/gran/hooke 4000.0 NULL 100.0 NULL 0.5 1
pair_coeff	1 1 gran/hooke/history
pair_coeff	1 2 tri/gran/hooke
pair_coeff	2 2 none

group           sphere type 1
0 atoms in group sphere
group           tri type 2
4 atoms in group tri

fix             fsl all surface/local NULL
  matched 0 tri edge pairs in fix surface/local
  matched 0 tri corners in fix surface/local

neighbor	0.3 bin
neigh_modify	delay 0 every 1 check yes

#displace_atoms  all rotate 0 0 0 0 0 1 45

fix             2 sphere nve/sphere
fix		3 sphere gravity 1.0 vector 0 0 -1
#fix             4 sphere viscous 0.2

region          slab block -2 2 -2 2 7 9 units box
fix             ins sphere pour 100 1 4767548 vol 0.4 10 	        diam one 1.0 region slab ignore
Particle insertion: 24 every 400 steps, 100 by step 1601

fix             wall sphere wall/gran hooke/history 4000.0 NULL 100.0 NULL 0.5 1                 zcylinder 7.0

timestep	0.005

compute         1 sphere temp
compute_modify  1 dynamic yes

compute         2 sphere temp/sphere
compute_modify  2 dynamic yes

thermo		100
thermo_style	custom step atoms temp c_1 c_2 press
thermo_modify   lost ignore
compute_modify  thermo_temp dynamic yes

dump		2 all image 100 tmp.image.*.ppm type type 		zoom 1.4 adiam 1.0 tri type 2 0.2
dump_modify	2 pad 5

run	        5000

CITE-CITE-CITE-CITE-CITE-CITE-CITE-CITE-CITE-CITE-CITE-CITE-CITE

Your simulation uses code contributions which should be cited:

- Type Label Framework: https://doi.org/10.1021/acs.jpcb.3c08419

@Article{Gissinger24,
 author = {Jacob R. Gissinger, Ilia Nikiforov, Yaser Afshar, Brendon Waters, Moon-ki Choi, Daniel S. Karls, Alexander Stukowski, Wonpil Im, Hendrik Heinz, Axel Kohlmeyer, and Ellad B. Tadmor},
 title = {Type Label Framework for Bonded Force Fields in LAMMPS},
 journal = {J. Phys. Chem. B},
 year =    2024,
 volume =  128,
 number =  13,
 pages =   {3282â€“-3297}
}

CITE-CITE-CITE-CITE-CITE-CITE-CITE-CITE-CITE-CITE-CITE-CITE-CITE

Generated 0 of 1 mixed pair_coeff terms from geometric mixing rule
Step        Atoms         Temp           c_1            c_2           Press
0           4   0              0              0              0
Averages over the last 26 of 51 rows, steps 2500 to 5000:
Atoms Temp c_1 c_2 Press
102.154 0.00783504 0.00815614 0.00690066 0.00760431
Loop time of 0.253965 on 1 procs for 5000 steps with 102 atoms

fix             1 tri move rotate 0 0 0 0 0 1 25
run	        5000
Generated 0 of 1 mixed pair_coeff terms from geometric mixing rule
Step        Atoms         Temp           c_1            c_2           Press
5000         102   0.00054672888  0.0005692744   0.00083077352  0.0067873702
Averages over the last 26 of 51 rows, steps 7500 to 10000:
Atoms Temp c_1 c_2 Press
56.2692 0.964485 0.0706125 0.0595962 0.0323973
Loop time of 0.233157 on 1 procs for 5000 steps with 41 atoms

unfix           1
set             type 1 angmom 0.0 0.0 0.0
Setting atom values ...
  37 settings made for angmom
velocity        tri set 0.0 0.0 0.0
run             5000
Generated 0 of 1 mixed pair_coeff terms from geometric mixing rule
Step        Atoms         Temp           c_1            c_2           Press
10000          41   0.047710232    0.053011369    0.054356603    0.0027565863
Averages over the last 26 of 51 rows, steps 12500 to 15000:
Atoms Temp c_1 c_2 Press
32.7692 0.00696261 0.0079615 0.0153363 0.00247598
Loop time of 0.181635 on 1 procs for 5000 steps with 30 atoms
