LAMMPS (27 Nov 2018)
# fix widom example with water

# variables available on command line

variable        temp index 338.0

# global model settings

units           real
atom_style      full
boundary        p p p
pair_style      lj/cut/coul/long  14
pair_modify     mix arithmetic tail yes
kspace_style    ewald 0.0001
bond_style      harmonic
angle_style     harmonic

read_data	data.widom_water
  orthogonal box = (0 0 0) to (10 10 10)
  reading atoms ...
  108 atoms
  reading velocities ...
  108 velocities
  scanning bonds ...
  scanning angles ...
  reading bonds ...
  72 bonds
  reading angles ...
  36 angles

molecule        h2omol H2O.txt
Read molecule h2omol:
  3 atoms with max type 2
  2 bonds with max type 1
  1 angles with max type 1
  0 dihedrals with max type 0
  0 impropers with max type 0

# rigid SPC/E water model

pair_coeff      1 1 0.15535 3.166
pair_coeff      * 2 0.0000 0.0000

bond_coeff      1     1000       1.0
angle_coeff     1      100       109.47

# MD settings

neighbor        2.0 bin
neigh_modify    every 1 delay 1 check yes
timestep        1.0

# widom
fix             mywidom all widom 10 1000 0 29494 338.0 mol h2omol

# output
thermo_style    custom step temp press pe ke density atoms f_mywidom[1]
thermo          10

# run
fix		1 all nvt temp 338.0 338.0 100.0
run             1000
Ewald initialization ...
  G vector (1/distance) = 0.181355
  estimated absolute RMS force accuracy = 0.0332066
  estimated relative force accuracy = 0.000100001
  KSpace vectors: actual max1d max3d = 16 2 62
                  kxmax kymax kzmax  = 2 2 2
0 atoms in group Øg’í±
0 atoms in group @?
  update every 1 steps, delay 1 steps, check yes
Step Temp Press PotEng KinEng Density Atoms f_mywidom[1]
       0    226.51823    31174.719   -387.98301    72.247237    1.0759934      108          inf
Loop time of 1729.53 on 1 procs for 1000 steps with 108 atoms
