LAMMPS (27 Nov 2018)
# LJ simple fluid
# T = 2.0
# rho ~ 0.5
# p ~ 1.5
# comparable to Frenkel and Smit GCMC Case Study, Figure 5.8

# variables modifiable using -var command line switch

variable        temp index 2.0

# global model settings

units           lj
atom_style      bond
pair_style      lj/cut 3.0
pair_modify	tail no # turn of to avoid triggering full_energy
bond_style      harmonic

read_data	data.widom_lj
  orthogonal box = (0 0 0) to (5 5 5)
  reading atoms ...
  64 atoms
  reading velocities ...
  64 velocities

# lj parameters

pair_coeff	* * 1.0 1.0
mass		* 1.0

# we recommend setting up a dedicated group for gcmc

group		widomgroup type 1
64 atoms in group widomgroup

# gcmc

fix             mywidom widomgroup widom 1 10000 1 29494 2.0

#run
fix             1 all nvt temp 2.0 2.0 0.5

# output

thermo_style    custom step temp press pe ke density atoms f_mywidom[1] f_mywidom[2] f_mywidom[3]
thermo          10

run             1000
  update every 1 steps, delay 10 steps, check yes
Step Temp Press PotEng KinEng Density Atoms f_mywidom[1] f_mywidom[2] f_mywidom[3]
       0    2.0512651    1.5002534   -2.9075798    3.0288212        0.512       64          inf            0            0
Loop time of 90.2574 on 1 procs for 1000 steps with 64 atoms
